tests/data/power_flow/pv-node/pv-node5/asym_output.json
{
  "version": "1.0",
  "type": "asym_output",
  "is_batch": false,
  "attributes": {},
  "data": {
    "node": [
      {
        "id": 1,
        "energized": 1,
        "u_pu": [
          1.0,
          1.0,
          1.0
        ],
        "u": [
          63508.529611,
          63508.529611,
          63508.529611
        ],
        "u_angle": [
          -0.0,
          -2.094395,
          2.094395
        ]
      },
      {
        "id": 2,
        "energized": 1,
        "u_pu": [
          0.981047,
          0.981051,
          0.981057
        ],
        "u": [
          62304.878037,
          62305.135128,
          62305.476376
        ],
        "u_angle": [
          -0.052691,
          -2.147056,
          2.041773
        ]
      },
      {
        "id": 3,
        "energized": 1,
        "u_pu": [
          1.03,
          1.03,
          1.03
        ],
        "u": [
          65413.785499,
          65413.785499,
          65413.785499
        ],
        "u_angle": [
          -0.007676,
          -2.101404,
          2.088276
        ]
      },
      {
        "id": 4,
        "energized": 1,
        "u_pu": [
          0.969962,
          0.969969,
          0.969979
        ],
        "u": [
          61600.843694,
          61601.305226,
          61601.914364
        ],
        "u_angle": [
          -0.11265,
          -2.206863,
          1.98217
        ]
      },
      {
        "id": 5,
        "energized": 1,
        "u_pu": [
          1.0,
          1.0,
          1.0
        ],
        "u": [
          63508.529611,
          63508.529611,
          63508.529611
        ],
        "u_angle": [
          -0.074935,
          -2.16882,
          2.020651
        ]
      }
    ],
    "sym_load": [
      {
        "id": 15,
        "energized": 1,
        "p": [
          8333333.333333,
          8333333.333333,
          8333333.333333
        ],
        "q": [
          2666666.666667,
          2666666.666667,
          2666666.666667
        ],
        "i": [
          140.432073,
          140.431493,
          140.430724
        ],
        "s": [
          8749603.165604,
          8749603.165604,
          8749603.165604
        ],
        "pf": [
          0.952424,
          0.952424,
          0.952424
        ]
      },
      {
        "id": 16,
        "energized": 1,
        "p": [
          8333333.333333,
          8333333.333333,
          8333333.333333
        ],
        "q": [
          2333333.333333,
          2333333.333333,
          2333333.333333
        ],
        "i": [
          138.89501,
          138.894437,
          138.893676
        ],
        "s": [
          8653836.657165,
          8653836.657165,
          8653836.657165
        ],
        "pf": [
          0.962964,
          0.962964,
          0.962964
        ]
      },
      {
        "id": 17,
        "energized": 1,
        "p": [
          8333333.333333,
          8333333.333333,
          8333333.333333
        ],
        "q": [
          2333333.333333,
          2333333.333333,
          2333333.333333
        ],
        "i": [
          140.482437,
          140.481385,
          140.479996
        ],
        "s": [
          8653836.657165,
          8653836.657165,
          8653836.657165
        ],
        "pf": [
          0.962964,
          0.962964,
          0.962964
        ]
      },
      {
        "id": 18,
        "energized": 1,
        "p": [
          8333333.333333,
          8333333.333333,
          8333333.333333
        ],
        "q": [
          2666666.666667,
          2666666.666667,
          2666666.666667
        ],
        "i": [
          142.037067,
          142.036003,
          142.034598
        ],
        "s": [
          8749603.165604,
          8749603.165604,
          8749603.165604
        ],
        "pf": [
          0.952424,
          0.952424,
          0.952424
        ]
      },
      {
        "id": 19,
        "energized": 1,
        "p": [
          3333333.333333,
          3333333.333333,
          3333333.333333
        ],
        "q": [
          1666666.666667,
          1666666.666667,
          1666666.666667
        ],
        "i": [
          58.681566,
          58.681566,
          58.681566
        ],
        "s": [
          3726779.9625,
          3726779.9625,
          3726779.9625
        ],
        "pf": [
          0.894427,
          0.894427,
          0.894427
        ]
      },
      {
        "id": 20,
        "energized": 1,
        "p": [
          5000000.0,
          5000000.0,
          5000000.0
        ],
        "q": [
          1666666.666667,
          1666666.666667,
          1666666.666667
        ],
        "i": [
          82.988266,
          82.988266,
          82.988266
        ],
        "s": [
          5270462.766947,
          5270462.766947,
          5270462.766947
        ],
        "pf": [
          0.948683,
          0.948683,
          0.948683
        ]
      }
    ],
    "sym_gen": [
      {
        "id": 21,
        "energized": 1,
        "p": [
          6666666.666667,
          6666666.666667,
          6666666.666667
        ],
        "q": [
          8849502.888601,
          9034359.946627,
          9164316.37254
        ],
        "i": [
          169.377562,
          171.643135,
          173.245716
        ],
        "s": [
          11079627.512683,
          11227827.220333,
          11332658.073923
        ],
        "pf": [
          0.601705,
          0.593763,
          0.58827
        ]
      },
      {
        "id": 23,
        "energized": 1,
        "p": [
          0.0,
          0.0,
          0.0
        ],
        "q": [
          1230793.524641,
          1232930.022781,
          1235805.971135
        ],
        "i": [
          19.379972,
          19.413613,
          19.458898
        ],
        "s": [
          1230793.524641,
          1232930.022781,
          1235805.971135
        ],
        "pf": [
          0.0,
          0.0,
          0.0
        ]
      }
    ],
    "asym_gen": [
      {
        "id": 22,
        "energized": 1,
        "p": [
          3000000.0,
          3300000.0,
          3700000.0
        ],
        "q": [
          7549502.888601,
          7334359.946627,
          7164316.37254
        ],
        "i": [
          124.189882,
          122.949069,
          123.266656
        ],
        "s": [
          8123730.292483,
          8042564.008243,
          8063338.581869
        ],
        "pf": [
          0.369288,
          0.410317,
          0.458867
        ]
      }
    ],
    "source": [
      {
        "id": 12,
        "energized": 1,
        "p": [
          32402161.684234,
          32101708.087941,
          31701165.791323
        ],
        "q": [
          -5102567.578867,
          -5078986.990092,
          -5047242.137306
        ],
        "i": [
          516.489168,
          511.758216,
          505.450924
        ],
        "s": [
          32801467.615156,
          32501011.845924,
          32100444.94585
        ],
        "pf": [
          0.987827,
          0.987714,
          0.987562
        ]
      }
    ],
    "line": [
      {
        "id": 6,
        "energized": 1,
        "p_from": [
          1960254.201611,
          1685696.315558,
          1319676.469707
        ],
        "q_from": [
          -12410499.065243,
          -12385077.780867,
          -12350900.756639
        ],
        "i_from": [
          197.837326,
          196.812444,
          195.583232
        ],
        "s_from": [
          12564357.666962,
          12499268.926878,
          12421203.463637
        ],
        "p_to": [
          -1921890.388025,
          -1647735.374096,
          -1282195.718415
        ],
        "q_to": [
          12532998.699685,
          12503548.694063,
          12464569.768138
        ],
        "i_to": [
          193.835288,
          192.798074,
          191.555099
        ],
        "s_to": [
          12679499.953464,
          12611651.827095,
          12530344.183824
        ],
        "loading": 0.387916
      },
      {
        "id": 7,
        "energized": 1,
        "p_from": [
          11588557.054691,
          11614402.040763,
          11648862.385082
        ],
        "q_from": [
          3866007.077518,
          3865171.19919,
          3864062.976943
        ],
        "i_from": [
          186.755889,
          187.12669,
          187.621282
        ],
        "s_from": [
          12216409.67442,
          12240665.143836,
          12273018.274098
        ],
        "p_to": [
          -11499778.484927,
          -11525277.209557,
          -11559274.62077
        ],
        "q_to": [
          -3631067.633433,
          -3626769.140691,
          -3621031.587384
        ],
        "i_to": [
          189.886585,
          190.249164,
          190.73284
        ],
        "s_to": [
          12059417.786981,
          12082444.668071,
          12113162.242586
        ],
        "loading": 0.373986
      },
      {
        "id": 8,
        "energized": 1,
        "p_from": [
          3166445.151593,
          3191943.876224,
          3225941.287436
        ],
        "q_from": [
          1528527.824741,
          1526365.830138,
          1523504.225186
        ],
        "i_from": [
          55.363798,
          55.710953,
          56.175115
        ],
        "s_from": [
          3516073.407803,
          3538120.737959,
          3567598.956462
        ],
        "p_to": [
          -3148220.802473,
          -3173530.122148,
          -3207272.362295
        ],
        "q_to": [
          -2575903.270448,
          -2571856.158104,
          -2566454.63098
        ],
        "i_to": [
          66.033962,
          66.310574,
          66.681539
        ],
        "s_to": [
          4067747.765021,
          4084817.93158,
          4107710.478944
        ],
        "loading": 0.130748
      },
      {
        "id": 9,
        "energized": 1,
        "p_from": [
          -8892025.302568,
          -8878180.596139,
          -8859722.746279
        ],
        "q_from": [
          -1561231.58136,
          -1563670.131191,
          -1566924.394844
        ],
        "i_from": [
          146.55713,
          146.341538,
          146.054202
        ],
        "s_from": [
          9028042.868315,
          9014829.725338,
          8997218.414604
        ],
        "p_to": [
          8997436.035664,
          8983271.771901,
          8964388.740278
        ],
        "q_to": [
          1385719.975412,
          1384954.020085,
          1383944.677639
        ],
        "i_to": [
          143.343264,
          143.121,
          142.824722
        ],
        "s_to": [
          9103519.927265,
          9089404.236009,
          9070588.09326
        ],
        "loading": 0.287367
      },
      {
        "id": 10,
        "energized": 1,
        "p_from": [
          -4626420.561626,
          -4614955.94838,
          -4599671.558093
        ],
        "q_from": [
          -862865.148192,
          -864473.710705,
          -866620.974176
        ],
        "i_from": [
          76.398278,
          76.219562,
          75.981395
        ],
        "s_from": [
          4706198.410288,
          4695224.510286,
          4680599.358545
        ],
        "p_to": [
          4654716.808883,
          4643113.299413,
          4627644.29879
        ],
        "q_to": [
          -60003.882474,
          -59798.24623,
          -59515.554118
        ],
        "i_to": [
          74.714913,
          74.528341,
          74.279618
        ],
        "s_to": [
          4655103.547378,
          4643498.351614,
          4628026.994012
        ],
        "loading": 0.149801
      },
      {
        "id": 11,
        "energized": 1,
        "p_from": [
          -21321383.47555,
          -21309779.96608,
          -21294310.965456
        ],
        "q_from": [
          -4939996.117526,
          -4940201.75377,
          -4940484.445882
        ],
        "i_from": [
          351.275574,
          351.093442,
          350.850687
        ],
        "s_from": [
          21886181.826728,
          21874924.355771,
          21859919.168505
        ],
        "p_to": [
          21444471.446959,
          21432740.000482,
          21417100.581338
        ],
        "q_to": [
          5922211.510964,
          5921136.77069,
          5919713.941695
        ],
        "i_to": [
          350.302565,
          350.120005,
          349.876676
        ],
        "s_to": [
          22247200.831117,
          22235606.683549,
          22220153.250206
        ],
        "loading": 0.688776
      }
    ],
    "voltage_regulator": [
      {
        "id": 30,
        "energized": 1,
        "q": [
          3849502.888601,
          4034359.946627,
          4164316.37254
        ],
        "limit_violated": 0
      },
      {
        "id": 31,
        "energized": 1,
        "q": [
          3849502.888601,
          4034359.946627,
          4164316.37254
        ],
        "limit_violated": 0
      },
      {
        "id": 32,
        "energized": 1,
        "q": [
          1230793.524641,
          1232930.022781,
          1235805.971135
        ],
        "limit_violated": 0
      }
    ]
  }
}