tests/data/power_flow/pv-node/pv-node5/sym_output.json
{
  "version": "1.0",
  "type": "sym_output",
  "is_batch": false,
  "attributes": {},
  "data": {
    "node": [
      {
        "id": 1,
        "energized": 1,
        "u_pu": 1.0,
        "u": 110000.0,
        "u_angle": -0.0
      },
      {
        "id": 2,
        "energized": 1,
        "u_pu": 0.981052,
        "u": 107915.708985,
        "u_angle": -0.052658
      },
      {
        "id": 3,
        "energized": 1,
        "u_pu": 1.03,
        "u": 113300.0,
        "u_angle": -0.006934
      },
      {
        "id": 4,
        "energized": 1,
        "u_pu": 0.96997,
        "u": 106696.678857,
        "u_angle": -0.112448
      },
      {
        "id": 5,
        "energized": 1,
        "u_pu": 1.0,
        "u": 110000.0,
        "u_angle": -0.074368
      }
    ],
    "sym_load": [
      {
        "id": 15,
        "energized": 1,
        "p": 25000000.0,
        "q": 8000000.0,
        "i": 140.431429,
        "s": 26248809.496813,
        "pf": 0.952424
      },
      {
        "id": 16,
        "energized": 1,
        "p": 25000000.0,
        "q": 7000000.0,
        "i": 138.894373,
        "s": 25961509.971494,
        "pf": 0.962964
      },
      {
        "id": 17,
        "energized": 1,
        "p": 25000000.0,
        "q": 7000000.0,
        "i": 140.481268,
        "s": 25961509.971494,
        "pf": 0.962964
      },
      {
        "id": 18,
        "energized": 1,
        "p": 25000000.0,
        "q": 8000000.0,
        "i": 142.035885,
        "s": 26248809.496813,
        "pf": 0.952424
      },
      {
        "id": 19,
        "energized": 1,
        "p": 10000000.0,
        "q": 5000000.0,
        "i": 58.681566,
        "s": 11180339.887499,
        "pf": 0.894427
      },
      {
        "id": 20,
        "energized": 1,
        "p": 15000000.0,
        "q": 5000000.0,
        "i": 82.988266,
        "s": 15811388.300842,
        "pf": 0.948683
      }
    ],
    "sym_gen": [
      {
        "id": 21,
        "energized": 1,
        "p": 20000000.0,
        "q": 24548049.69586,
        "i": 161.352156,
        "s": 31663966.016127,
        "pf": 0.631633
      },
      {
        "id": 23,
        "energized": 1,
        "p": 0.0,
        "q": 3699505.482704,
        "i": 19.417368,
        "s": 3699505.482704,
        "pf": 0.0
      }
    ],
    "asym_gen": [
      {
        "id": 22,
        "energized": 1,
        "p": 10000000.0,
        "q": 24548049.69586,
        "i": 135.07209,
        "s": 26506730.161799,
        "pf": 0.377263
      }
    ],
    "source": [
      {
        "id": 12,
        "energized": 1,
        "p": 96204980.506008,
        "q": -15229064.572078,
        "i": 511.232581,
        "s": 97402888.467961,
        "pf": 0.987702
      }
    ],
    "line": [
      {
        "id": 6,
        "energized": 1,
        "p_from": 4965576.477175,
        "q_from": -37146726.009285,
        "i_from": 196.703984,
        "s_from": 37477142.406533,
        "p_to": -4851821.160439,
        "q_to": 37500863.672372,
        "i_to": 192.688348,
        "s_to": 37813422.811836,
        "loading": 0.385694
      },
      {
        "id": 7,
        "energized": 1,
        "p_from": 34851821.160439,
        "q_from": 11595235.719349,
        "i_from": 187.167897,
        "s_from": 36730082.079768,
        "p_to": -34584331.097396,
        "q_to": -10878873.849605,
        "i_to": 190.28946,
        "s_to": 36255011.428628,
        "loading": 0.373117
      },
      {
        "id": 8,
        "energized": 1,
        "p_from": 9584331.097396,
        "q_from": 4578379.332308,
        "i_from": 55.749578,
        "s_from": 10621721.136192,
        "p_to": -9529026.386931,
        "q_to": -7714218.796747,
        "i_to": 66.341395,
        "s_to": 12260159.686028,
        "loading": 0.130081
      },
      {
        "id": 9,
        "energized": 1,
        "p_from": -26629927.095875,
        "q_from": -4691823.584425,
        "i_from": 146.317588,
        "s_from": 27040085.533869,
        "p_to": 26945094.210583,
        "q_to": 4154608.162418,
        "i_to": 143.096306,
        "s_to": 27263508.046479,
        "loading": 0.286897
      },
      {
        "id": 10,
        "energized": 1,
        "p_from": -13841046.517195,
        "q_from": -2593957.618828,
        "i_from": 76.19971,
        "s_from": 14082016.361992,
        "p_to": 13925472.341166,
        "q_to": -179325.179997,
        "i_to": 74.507612,
        "s_to": 13926626.922725,
        "loading": 0.149411
      },
      {
        "id": 11,
        "energized": 1,
        "p_from": -63925472.341166,
        "q_from": -14820674.820003,
        "i_from": 351.073209,
        "s_from": 65621021.145373,
        "p_to": 64294309.818251,
        "q_to": 17763053.274789,
        "i_to": 350.099724,
        "s_to": 66702955.981337,
        "loading": 0.688379
      }
    ],
    "voltage_regulator": [
      {
        "id": 30,
        "energized": 1,
        "limit_violated": 0
      },
      {
        "id": 31,
        "energized": 1,
        "limit_violated": 0
      },
      {
        "id": 32,
        "energized": 1,
        "limit_violated": 0
      }
    ]
  }
}